<?xml version="1.0" encoding="UTF-8"?>

<!-- generated on 2026-03-02T15:24:52.762608+05:30 by Eclipse SUMO netedit 1.25.0
-->

<routes xmlns:xsi="http://www.w3.org/2001/XMLSchema-instance" xsi:noNamespaceSchemaLocation="http://sumo.dlr.de/xsd/routes_file.xsd">
    <!-- Vehicles, persons and containers (sorted by depart) -->
    <flow id="f_0" begin="0.00" end="3600.00" perHour="1800.00" from="Node4_5_EB" to="Node1_2_WB" via="Node5_6_EB Node3_6_NB Node2_3_WB"/>
    <flow id="f_1" begin="0.00" end="3600.00" perHour="1800.00" from="Node2_7_SB" to="Node1_4_NB" via="Node2_5_SB Node4_5_WB"/>
    <flow id="f_2" begin="0.00" end="3600.00" perHour="1800.00" from="Node1_2_EB" to="Node4_5_WB" via="Node2_3_EB Node3_6_SB Node5_6_WB"/>
</routes>
