<?xml version="1.0" encoding="UTF-8"?>

<!-- generated on 2026-03-05T00:33:16.086850+05:30 by Eclipse SUMO sumo 1.25.0
-->

<sumoConfiguration xmlns:xsi="http://www.w3.org/2001/XMLSchema-instance" xsi:noNamespaceSchemaLocation="http://sumo.dlr.de/xsd/sumoConfiguration.xsd">

    <input>
        <net-file value="Traci.net.xml"/>
        <route-files value="Traci.rou.xml"/>
        <additional-files value="Traci.add.xml"/>
    </input>

</sumoConfiguration>
