<?xml version="1.0" encoding="UTF-8"?>

<!-- generated on 2026-03-04T23:17:52.011557+05:30 by Eclipse SUMO netedit 1.25.0
-->

<additional xmlns:xsi="http://www.w3.org/2001/XMLSchema-instance" xsi:noNamespaceSchemaLocation="http://sumo.dlr.de/xsd/additional_file.xsd">
    <!-- Detectors -->
    <laneAreaDetector id="Node1_2_EB_0" lane="Node1_2_EB_0" pos="41.42" length="50.00" period="300.00" file="e2_0.xml"/>
    <laneAreaDetector id="Node1_2_EB_1" lane="Node1_2_EB_1" pos="41.53" length="50.00" period="300.00" file="e2_3.xml"/>
    <laneAreaDetector id="Node1_2_EB_2" lane="Node1_2_EB_2" pos="41.74" length="50.00" period="300.00" file="e2_1.xml"/>
    <laneAreaDetector id="Node2_5_SB_0" lane="Node2_5_SB_0" pos="15.27" length="50.00" period="300.00" file="e2_0.xml"/>
    <laneAreaDetector id="Node2_5_SB_1" lane="Node2_5_SB_1" pos="15.35" length="50.00" period="300.00" file="e2_0.xml"/>
    <laneAreaDetector id="Node2_5_SB_2" lane="Node2_5_SB_2" pos="15.23" length="50.00" period="300.00" file="Node2_5_SB_1.xml"/>
    <laneAreaDetector id="Node2_7_SB_0" lane="Node2_7_SB_0" pos="147.40" length="50.00" period="300.00" file="e2_0.xml"/>
    <laneAreaDetector id="Node2_7_SB_1" lane="Node2_7_SB_1" pos="147.78" length="50.00" period="300.00" file="e2_1.xml"/>
    <laneAreaDetector id="Node2_7_SB_2" lane="Node2_7_SB_2" pos="147.88" length="50.00" period="300.00" file="e2_2.xml"/>
</additional>
